Circuit: * C:\Fran\ITBA\Electronica Potencia\EPOT-TPs\TP1\boostSch.asc

Direct Newton iteration for .op point succeeded.
Heightened Def Con from 6.00039e-005 to 6.0004e-005

Date: Wed Mar 29 17:21:29 2023
Total elapsed time: 7.836 seconds.

tnom = 27
temp = 27
method = modified trap
totiter = 1278361
traniter = 1278319
tranpoints = 459002
accept = 336690
rejected = 122313
matrix size = 67
fillins = 21
solver = Normal
Matrix Compiler1: 4.76 KB object code size  0.8/0.4/[0.2]
Matrix Compiler2: off  [0.3]/0.6/0.4

