Circuit: * C:\Fran\ITBA\Electronica Potencia\EPOT-TPs\TP1\boostSch.asc

Direct Newton iteration for .op point succeeded.
Heightened Def Con from 6.00039e-005 to 6.00042e-005

Date: Thu Mar 30 14:12:36 2023
Total elapsed time: 12.213 seconds.

tnom = 27
temp = 27
method = modified trap
totiter = 1463558
traniter = 1463516
tranpoints = 548808
accept = 404716
rejected = 144093
matrix size = 66
fillins = 25
solver = Normal
Matrix Compiler1: 4.87 KB object code size  0.7/0.3/[0.3]
Matrix Compiler2: off  [0.3]/0.6/0.4

